STAAD SPACE
START JOB INFORMATION
ENGINEER DATE 17-May-21
END JOB INFORMATION
INPUT WIDTH 79
UNIT METER MTON
JOINT COORDINATES
1 0 0 0; 2 0 3.15 0; 3 0 0 6.635; 4 0 3.15 6.635; 5 0 3.15 0.510385;
6 0 2.625 0.510385; 7 0 2.625 0; 8 0 3.15 1.02077; 9 0 2.625 1.02077;
10 0 3.15 1.53115; 11 0 2.625 1.53115; 12 0 3.15 2.04154; 13 0 2.625 2.04154;
14 0 3.15 2.55192; 15 0 2.625 2.55192; 16 0 3.15 3.06231; 17 0 2.625 3.06231;
18 0 3.15 3.57269; 19 0 2.625 3.57269; 20 0 3.15 4.08308; 21 0 2.625 4.08308;
22 0 3.15 4.59346; 23 0 2.625 4.59346; 24 0 3.15 5.10385; 25 0 2.625 5.10385;
26 0 3.15 5.61423; 27 0 2.625 5.61423; 28 0 3.15 6.12462; 29 0 2.625 6.12462;
30 0 2.625 6.635; 31 0 2.1 0.510385; 32 0 2.1 0; 33 0 2.1 1.02077;
34 0 2.1 1.53115; 35 0 2.1 2.04154; 36 0 2.1 2.55192; 37 0 2.1 3.06231;
38 0 2.1 3.57269; 39 0 2.1 4.08308; 40 0 2.1 4.59346; 41 0 2.1 5.10385;
42 0 2.1 5.61423; 43 0 2.1 6.12462; 44 0 2.1 6.635; 45 0 1.575 0.510385;
46 0 1.575 0; 47 0 1.575 1.02077; 48 0 1.575 1.53115; 49 0 1.575 2.04154;
50 0 1.575 2.55192; 51 0 1.575 3.06231; 52 0 1.575 3.57269; 53 0 1.575 4.08308;
54 0 1.575 4.59346; 55 0 1.575 5.10385; 56 0 1.575 5.61423; 57 0 1.575 6.12462;
58 0 1.575 6.635; 59 0 1.05 0.510385; 60 0 1.05 0; 61 0 1.05 1.02077;
62 0 1.05 1.53115; 63 0 1.05 2.04154; 64 0 1.05 2.55192; 65 0 1.05 3.06231;
66 0 1.05 3.57269; 67 0 1.05 4.08308; 68 0 1.05 4.59346; 69 0 1.05 5.10385;
70 0 1.05 5.61423; 71 0 1.05 6.12462; 72 0 1.05 6.635; 73 0 0.525 0.510385;
74 0 0.525 0; 75 0 0.525 1.02077; 76 0 0.525 1.53115; 77 0 0.525 2.04154;
78 0 0.525 2.55192; 79 0 0.525 3.06231; 80 0 0.525 3.57269; 81 0 0.525 4.08308;
# ... 2345 like lines cut
MEMBER INCIDENCES
1 7066 3563; 2 7065 3562; 3 7064 3561; 4 2801 6886; 5 2881 6807; 6 2882 6810;
7 2883 6809; 8 2918 6812; 9 2919 6813; 10 7062 7067; 11 784 6967; 12 783 6970;
13 187 6975; 14 769 6978; 15 770 6982; 16 812 7000; 17 811 7003; 18 285 7006;
19 797 7009; 20 798 7012; 21 931 7030; 22 5770 6964; 23 5780 6985;
24 5778 6991; 25 5777 6994; 26 5776 6997; 27 5779 6988; 28 756 7068;
29 89 6951; 30 5785 7015; 31 5784 7018; 32 5783 7021; 33 5782 7024;
34 5781 7027; 35 5862 3558; 36 5807 1049; 37 5817 1064; 38 5816 1063;
39 5796 6343; 40 5811 1463; 41 5812 1464; 42 7063 2276; 43 9978 9979;
1000 1 74; 1001 3 86; 1002 7 2; 1003 30 4; 1004 32 7; 1005 44 30; 1006 46 32;
1007 58 44; 1008 60 46; 1009 72 58; 1010 74 60; 1011 86 72; 1012 99 172;
1013 101 184; 1014 105 100; 1015 128 102; 1016 130 105; 1017 142 128;
1018 144 130; 1019 156 142; 1020 158 144; 1021 170 156; 1022 172 158;
1023 184 170; 1024 197 270; 1025 199 282; 1026 203 198; 1027 226 200;
1028 228 203; 1029 240 226; 1030 242 228; 1031 254 240; 1032 256 242;
1033 268 254; 1034 270 256; 1035 282 268; 1036 295 368; 1037 297 380;
1038 301 296; 1039 324 298; 1040 326 301; 1041 338 324; 1042 340 326;
1043 352 338; 1044 354 340; 1045 366 352; 1046 368 354; 1047 380 366;
1048 393 466; 1049 395 478; 1050 399 394; 1051 422 396; 1052 424 399;
1053 436 422; 1054 438 424; 1055 450 436; 1056 452 438; 1057 464 450;
1058 466 452; 1059 478 464; 1060 491 564; 1061 493 576; 1062 497 492;
# ... 611 like lines cut
ELEMENT INCIDENCES SHELL
10000 9881 9854 9890 6952; 10001 6952 9890 9889 6953;
10002 6953 9889 9895 5788; 10003 9876 9881 6952 6954;
10004 6954 6952 6953 6955; 10005 6955 6953 5788 4094;
10006 9875 9876 6954 6956; 10007 6956 6954 6955 6957;
10008 6957 6955 4094 4093; 10009 9867 9875 6956 6958;
10010 6958 6956 6957 6959; 10011 6959 6957 4093 4095;
10012 9879 9867 6958 6960; 10013 6960 6958 6959 6961;
10014 6961 6959 4095 4101; 10015 9873 9879 6960 6962;
10016 6962 6960 6961 6963; 10017 6963 6961 4101 4128;
10018 9874 9873 6962 6965; 10019 6965 6962 6963 6966;
10020 6966 6963 4128 9896; 10021 9862 9874 6965 6968;
10022 6968 6965 6966 6969; 10023 6969 6966 9896 9898;
10024 9855 9862 6968 6971; 10025 6971 6968 6969 6972;
10026 6972 6969 9898 9892; 10027 9857 9855 6971 6973;
10028 6973 6971 6972 6974; 10029 6974 6972 9892 9891;
10030 9859 9857 6973 6976; 10031 6976 6973 6974 6977;
10032 6977 6974 9891 9893; 10033 9897 9859 6976 6980;
10034 6980 6976 6977 6981; 10035 6981 6977 9893 9894;
10036 9868 9897 6980 6983; 10037 6983 6980 6981 6984;
10038 6984 6981 9894 9908; 10039 9880 9868 6983 6986;
# ... 2879 like lines cut
START GROUP DEFINITION
MEMBER
_INCLINADAS_PB 6090 TO 6118 6120 6121 6124 TO 6133 6141 TO 6148 6170 TO 6187 -
6196 TO 6223 27783 27784 29492 TO 29508 29525 TO 29528
_MADERA 6000 TO 6088 6090 TO 6103 6105 TO 6121 6123 TO 6133 6149 TO 6163 6168 -
6169 6177 TO 6187 6196 TO 6216 6219 TO 6223 6500 TO 6592 6626
_ENTREPISO 6000 TO 6071 6500 TO 6509 6543 TO 6592 6626
_AZOTEA 6072 TO 6088 6119 6123 6149 TO 6163 6168 6169
END GROUP DEFINITION
******************************
******************************
ELEMENT PROPERTY
12004 TO 12013 15000 TO 19050 THICKNESS 0.14
10000 TO 11157 THICKNESS 0.12
12000 TO 12003 12014 TO 12161 12163 TO 12454 THICKNESS 0.15
13000 TO 13468 THICKNESS 0.15
13469 TO 13555 THICKNESS 0.35
13556 TO 13591 THICKNESS 0.4
13592 TO 13603 THICKNESS 0.3
13604 TO 13649 THICKNESS 0.2
DEFINE MATERIAL START
ISOTROPIC MADERA
E 1.25e+006
POISSON 0.2
DENSITY 0.45
ALPHA 9.9e-006
DAMP 0.07
G 520833
******************************
*ISOTROPIC MAD_OSB
*E 859803
*POISSON 0.2
*DENSITY 0.45
*ALPHA 9.9e-006
*DAMP 0.02
*G 320000
******************************
*ISOTROPIC BLOCK
*E 373489
*POISSON 0.33
*DENSITY 1.5
*ALPHA 2.3e-005
*DAMP 0.03
*G 74697.8
******************************
ISOTROPIC TABIQUE
E 217869
POISSON 0.33
DENSITY 1.3
ALPHA 2.3e-005
DAMP 0.03
G 43573.7
******************************
ISOTROPIC CONCRETE
E 2.21467e+006
POISSON 0.17
DENSITY 2.40262
ALPHA 1e-005
DAMP 0.05
***************************
ISOTROPIC DIAFRAGMA
E 9e+009
POISSON 0.3
DENSITY 0.001
ALPHA 1.2e-005
DAMP 0.05
******************************
END DEFINE MATERIAL
******************************
MEMBER PROPERTY AMERICAN
*DIAGRAGMA RGIDO
1 TO 43 PRIS YD 0.001 ZD 0.14
MEMBER PROPERTY AMERICAN
*ELEMENTOS DE CONCRETO
1000 TO 2292 PRIS YD 0.14 ZD 0.14
3000 TO 4315 4336 27781 TO 27784 29492 TO 29531 PRIS YD 0.2 ZD 0.14
2307 TO 2311 2319 2327 PRIS YD 0.8 ZD 0.5
2304 TO 2306 2312 TO 2314 2324 2326 2329 TO 2337 PRIS YD 0.3 ZD 0.15
2315 TO 2318 2320 2323 2328 2338 PRIS YD 1.2 ZD 0.56
2300 TO 2303 2321 2322 2325 PRIS YD 1.15 ZD 0.3
5000 TO 5013 PRIS YD 0.3 ZD 0.3
5014 5015 PRIS YD 0.3 ZD 0.15
4316 TO 4335 PRIS YD 0.4 ZD 0.15
MEMBER PROPERTY AMERICAN
*ELEMENTOS DE MADERA
6000 TO 6256 PRIS YD 0.2 ZD 0.1
27330 TO 27334 PRIS YD 0.15 ZD 0.15
6500 TO 6592 PRIS YD 0.25 ZD 0.1
6600 TO 6627 PRIS YD 0.3 ZD 0.2
CONSTANTS
MATERIAL CONCRETE MEMB 1 TO 43 1000 TO 2292 2300 TO 2338 3000 TO 4336 5000 -
5001 TO 5015 6600 TO 6627 10000 TO 11157 12000 TO 12003 12014 TO 12161 12163 -
12164 TO 12454 13000 TO 13649 27781 TO 27784 29492 TO 29531
MATERIAL TABIQUE MEMB 12004 TO 12013 15000 TO 19050
MATERIAL MADERA MEMB 6000 TO 6256 6500 TO 6592 27330 TO 27334
SUPPORTS
13000 TO 13649 PLATE MAT DIRECT Y SUBGRADE 1000 PRINT
3300 TO 3313 3364 TO 3373 3385 3396 3397 3403 3409 3415 3431 TO 3433 3444 -
3445 3471 TO 3475 3486 3487 3498 3499 3512 3513 3583 3584 3597 3598 3626 -
3652 TO 3656 3687 3688 3717 TO 3720 3750 TO 3754 3779 TO 3782 3836 TO 3840 -
3853 3854 3867 3868 3881 3882 3902 3909 3923 3936 3937 3944 3977 3978 3994 -
3995 TO 3996 4009 4037 4044 4070 TO 4074 4085 TO 4091 4120 TO 4122 4127 4162 -
4167 4168 4174 4192 4210 TO 4212 4257 TO 4260 4264 TO 4266 4268 4272 4331 -
4333 TO 4340 4363 4366 4372 4374 4376 TO 4379 4397 TO 4399 4412 4413 4420 -
4433 4434 4447 4448 4472 TO 4477 4488 4499 4511 4512 4525 4526 4557 TO 4561 -
4572 4573 4579 4585 4591 4597 4603 4640 4641 4731 TO 4734 4750 4751 4757 -
4768 4769 4788 TO 4790 4819 4825 4831 4847 TO 4849 4862 4863 5239 TO 5247 -
5377 TO 5380 5391 5392 5398 5409 5410 5427 TO 5429 5786 6118 6139 6146 6152 -
6163 6169 6171 6215 TO 6219 6251 TO 6255 6262 6268 6280 6281 6287 -
9790 TO 9813 9823 FIXED
MEMBER RELEASE
3871 4261 4263 6000 TO 6023 6501 TO 6509 6543 TO 6548 6560 TO 6581 START MY MZ
3871 4263 6011 TO 6022 6027 6031 6035 6039 6043 6047 6051 6055 6059 6063 6067 -
6071 6504 TO 6509 6543 6545 6547 6551 TO 6582 6584 6586 6587 END MY MZ
6150 END MY MZ
6151 END MY MZ
6152 END MY MZ
6156 END MY MZ
6157 END MY MZ
6158 END MY MZ
6159 END MY MZ
6160 END MY MZ
6161 END MY MZ
6162 END MY MZ
6163 END MY MZ
6149 END MY MZ
MEMBER OFFSET
2300 TO 2303 2321 2322 START 0.425 0 0
2300 TO 2303 2321 2322 END 0.425 0 0
*********************************Modificacion de modos ************
*******************************************************************
*CUT OFF MODE SHAPE 100
LOAD 1 LOADTYPE Dead  TITLE CARGA MUERTA
SELFWEIGHT Y -1 
*Carga en losas
ELEMENT LOAD
10000 TO 11157 PR GY -0.06
*Carga en vigas de madera 200kg/m2 a 40cm
MEMBER LOAD
6000 TO 6224 6500 TO 6592 UNI GY -0.08
ELEMENT LOAD
13000 TO 13649 PR GY -1.44
13000 TO 13649 PR GY 0.25
13000 TO 13649 PR GY -0.06
LOAD 2 LOADTYPE Live  TITLE CARGA VIVA INST
ELEMENT LOAD
*Carga en losas de entrepiso 100kg/m2
10000 TO 10736 PR GY -0.1
*Carga en losas de azotea 70kg/m2
10739 TO 11155 PR GY -0.07
MEMBER LOAD
*Cargas de entrepiso 100kg/m2 a 40cm
6000 TO 6071 6500 TO 6509 6543 TO 6587 6590 TO 6592 6626 UNI GY -0.04
*Cargas de pendientes mayor al 5% 20kg/m2 a 40cm
6510 TO 6542 UNI GY -0.008
*Cargas de azotea 70kg/m2 a 40cm
ELEMENT LOAD
13000 TO 13649 PR GY -0.1
LOAD 3 LOADTYPE Live  TITLE CARGA VIVA MAX
ELEMENT LOAD
*Carga en losas de entrepiso 190kg/m2
10000 TO 10736 PR GY -0.19
*Carga en losas de azotea 100kg/m2
10739 TO 11155 PR GY -0.1
MEMBER LOAD
*Cargas de entrepiso 190kg/m2 a 40cm
6000 TO 6071 6500 TO 6509 6543 TO 6587 6590 TO 6592 6626 UNI GY -0.076
*Cargas de pendientes mayor al 5% 40kg/m2 a 40cm
6510 TO 6542 UNI GY -0.016
*Cargas de azotea 70kg/m2 a 40cm
ELEMENT LOAD
13000 TO 13649 PR GY -0.19
***************************************************
***************************************************
LOAD 12 SISMO DIN. X,
*CARGAS MUERTAS
*************
SELFWEIGHT X 1 
SELFWEIGHT Y 1 
SELFWEIGHT Z 1 
*Carga en losas
ELEMENT LOAD
10000 TO 11157 PR GX 0.06
10000 TO 11157 PR GY 0.06
10000 TO 11157 PR GZ 0.06
*CARGAS VIVAS
*Carga en vigas de madera 200kg/m2 a 40cm
MEMBER LOAD
6000 TO 6224 6500 TO 6592 UNI GX 0.08
6000 TO 6224 6500 TO 6592 UNI GY 0.08
6000 TO 6224 6500 TO 6592 UNI GZ 0.08
*Espectro*
*************
SPECTRUM CQC X 1 ACC SCALE 9.81 DAMP 0.07
0 0.1024; 0.1 0.3014; 0.2 0.3014; 0.3 0.3014; 0.4 0.3014; 0.5 0.3014;
0.6 0.3014; 0.7 0.279; 0.8 0.261; 0.9 0.2461; 1 0.2334; 1.1 0.2226; 1.2 0.2131;
1.3 0.2047; 1.4 0.1973; 1.5 0.1906; 1.6 0.1846; 1.7 0.179; 1.8 0.174;
1.9 0.1694; 2 0.1651; 2.1 0.1567; 2.2 0.1483; 2.3 0.14; 2.4 0.1321; 2.5 0.1247;
2.6 0.1176; 2.7 0.111; 2.8 0.1048; 2.9 0.0991; 3 0.0937; 3.1 0.0888;
3.2 0.0841; 3.3 0.0798; 3.4 0.0758; 3.5 0.0721; 3.6 0.0686; 3.7 0.0653;
3.8 0.0623; 3.9 0.0594; 4 0.0567; 4.1 0.0542; 4.2 0.0519; 4.3 0.0497;
4.4 0.0476; 4.5 0.0457; 4.6 0.0439; 4.7 0.0421; 4.8 0.0405; 4.9 0.039;
5 0.0375;
LOAD 13 SISMO DIN. Y
*CARGAS MUERTAS
*************
SELFWEIGHT X 1 
SELFWEIGHT Y 1 
SELFWEIGHT Z 1 
*Carga en losas
ELEMENT LOAD
10000 TO 11157 PR GX 0.06
10000 TO 11157 PR GY 0.06
10000 TO 11157 PR GZ 0.06
*CARGAS VIVAS
*Carga en vigas de madera 200kg/m2 a 40cm
MEMBER LOAD
6000 TO 6224 6500 TO 6592 UNI GX 0.08
6000 TO 6224 6500 TO 6592 UNI GY 0.08
6000 TO 6224 6500 TO 6592 UNI GZ 0.08
*Espectro*
*************
SPECTRUM CQC Y 1 ACC SCALE 9.81 DAMP 0.07
0 0.1024; 0.1 0.3014; 0.2 0.3014; 0.3 0.3014; 0.4 0.3014; 0.5 0.3014;
0.6 0.3014; 0.7 0.279; 0.8 0.261; 0.9 0.2461; 1 0.2334; 1.1 0.2226; 1.2 0.2131;
1.3 0.2047; 1.4 0.1973; 1.5 0.1906; 1.6 0.1846; 1.7 0.179; 1.8 0.174;
1.9 0.1694; 2 0.1651; 2.1 0.1567; 2.2 0.1483; 2.3 0.14; 2.4 0.1321; 2.5 0.1247;
2.6 0.1176; 2.7 0.111; 2.8 0.1048; 2.9 0.0991; 3 0.0937; 3.1 0.0888;
3.2 0.0841; 3.3 0.0798; 3.4 0.0758; 3.5 0.0721; 3.6 0.0686; 3.7 0.0653;
3.8 0.0623; 3.9 0.0594; 4 0.0567; 4.1 0.0542; 4.2 0.0519; 4.3 0.0497;
4.4 0.0476; 4.5 0.0457; 4.6 0.0439; 4.7 0.0421; 4.8 0.0405; 4.9 0.039;
5 0.0375;
LOAD 14 SISMO DIN. Z,
*CARGAS MUERTAS
*************
SELFWEIGHT X 1 
SELFWEIGHT Y 1 
SELFWEIGHT Z 1 
*Carga en losas
ELEMENT LOAD
10000 TO 11157 PR GX 0.06
10000 TO 11157 PR GY 0.06
10000 TO 11157 PR GZ 0.06
*CARGAS VIVAS
*Carga en vigas de madera 200kg/m2 a 40cm
MEMBER LOAD
6000 TO 6224 6500 TO 6592 UNI GX 0.08
6000 TO 6224 6500 TO 6592 UNI GY 0.08
6000 TO 6224 6500 TO 6592 UNI GZ 0.08
*Espectro*
*************
SPECTRUM CQC Z 1 ACC SCALE 9.81 DAMP 0.07
0 0.1024; 0.1 0.3014; 0.2 0.3014; 0.3 0.3014; 0.4 0.3014; 0.5 0.3014;
0.6 0.3014; 0.7 0.279; 0.8 0.261; 0.9 0.2461; 1 0.2334; 1.1 0.2226; 1.2 0.2131;
1.3 0.2047; 1.4 0.1973; 1.5 0.1906; 1.6 0.1846; 1.7 0.179; 1.8 0.174;
1.9 0.1694; 2 0.1651; 2.1 0.1567; 2.2 0.1483; 2.3 0.14; 2.4 0.1321; 2.5 0.1247;
2.6 0.1176; 2.7 0.111; 2.8 0.1048; 2.9 0.0991; 3 0.0937; 3.1 0.0888;
3.2 0.0841; 3.3 0.0798; 3.4 0.0758; 3.5 0.0721; 3.6 0.0686; 3.7 0.0653;
3.8 0.0623; 3.9 0.0594; 4 0.0567; 4.1 0.0542; 4.2 0.0519; 4.3 0.0497;
4.4 0.0476; 4.5 0.0457; 4.6 0.0439; 4.7 0.0421; 4.8 0.0405; 4.9 0.039;
5 0.0375;
LOAD 4 LOADTYPE None  TITLE GRANIZO
MEMBER LOAD
6090 TO 6118 6120 6121 6124 TO 6133 6141 TO 6148 6170 TO 6187 6196 TO 6223 -
27783 27784 29492 TO 29508 29525 TO 29528 UNI GY -0.04
LOAD COMB 25 CM+CVMAX.
1 1.0 3 1.0 
LOAD COMB 29 CM+CVINST.
1 1.0 2 1.0 
***********************************************************
*COMBINACIONES PARA DESPLAZAMIENTOS
LOAD COMB 130 C.M. + C.V.I. + SX + .33SY + .33SZ
1 1.0 2 1.0 12 2.0 13 0.667 14 0.667 
LOAD COMB 131 C.M. + C.V.I. + SX - .33SY - .33SZ
1 1.0 2 1.0 12 2.0 13 -0.667 14 -0.667 
LOAD COMB 132 C.M. + C.V.I.  + SX + .33SY - .33SZ
1 1.0 2 1.0 12 2.0 13 0.667 14 -0.667 
LOAD COMB 133 C.M. + C.V.I.  + SX - .33SY + .33SZ
1 1.0 2 1.0 12 2.0 13 -0.667 14 0.667 
LOAD COMB 134 C.M. + C.V.I.  - SX + .33SY + .33SZ
1 1.0 2 1.0 12 -2.0 13 0.667 14 0.667 
LOAD COMB 135 C.M. + C.V.I.  - SX + .33SY - .33SZ
1 1.0 2 1.0 12 -2.0 13 0.667 14 -0.667 
LOAD COMB 136 C.M. + C.V.I. - SX - .33SY + .33SZ
1 1.0 2 1.0 12 -2.0 13 -0.667 14 0.667 
LOAD COMB 137 C.M. + C.V.I.  - SX - .33SY - .33SZ
1 1.0 2 1.0 12 -2.0 13 -0.667 14 -0.667 
LOAD COMB 146 C.M. + C.V.I. + .33SX + .33SY + SZ
1 1.0 2 1.0 12 0.667 13 0.667 14 2.0 
LOAD COMB 147 C.M. + C.V.I. + .33SX - .33SY - SZ
1 1.0 2 1.0 12 0.667 13 -0.667 14 -2.0 
LOAD COMB 148 C.M. + C.V.I. + .33SX + .33SY - SZ
1 1.0 2 1.0 12 0.667 13 0.667 14 -2.0 
LOAD COMB 149 C.M. + C.V.I. + .33SX - .33SY + SZ
1 1.0 2 1.0 12 0.667 13 -0.667 14 2.0 
LOAD COMB 150 C.M. + C.V.I. - .33SX + .33SY + SZ
1 1.0 2 1.0 12 -0.667 13 0.667 14 2.0 
LOAD COMB 151 C.M. + C.V.I. - .33SX + .33SY - SZ
1 1.0 2 1.0 12 -0.667 13 0.667 14 -2.0 
LOAD COMB 152 C.M. + C.V.I. - .33SX - .33SY + SZ
1 1.0 2 1.0 12 -0.667 13 -0.667 14 2.0 
LOAD COMB 153 C.M. + C.V.I. - .33SX - .33SY - SZ
1 1.0 2 1.0 12 -0.667 13 -0.667 -2
***********************************************************
***ANALISIS SISMICO DINAMICO MODAL Q=1 COMBINADAS
***PARA DISEO N.T.C. 2017
***********************************************************
LOAD COMB 160 1.3CM + 1.5CVM
1 1.3 3 1.5 
LOAD COMB 170 1.1(CM + CV + SX + .33SY + .33SZ)
1 1.1 3 1.1 12 1.1 13 0.33 14 0.33 
LOAD COMB 171 1.1(CM + CV + SX - .33SY - .33SZ)
1 1.1 3 1.1 12 1.1 13 -0.33 14 -0.33 
LOAD COMB 172 1.1(CM + CV + SX + .33SY - .33SZ)
1 1.1 3 1.1 12 1.1 13 0.33 14 -0.33 
LOAD COMB 173 1.1(CM + CV + SX - .33SY + .33SZ)
1 1.1 3 1.1 12 1.1 13 -0.33 14 0.33 
LOAD COMB 174 1.1(CM + CV - SX + .33SY + .33SZ)
1 1.1 3 1.1 12 -1.1 13 0.33 14 0.33 
LOAD COMB 175 1.1(CM + CV - SX + .33SY - .33SZ)
1 1.1 3 1.1 12 -1.1 13 0.33 14 -0.33 
LOAD COMB 176 1.1(CM + CV - SX - .33SY + .33SZ)
1 1.1 3 1.1 12 -1.0 13 -0.33 14 0.33 
LOAD COMB 177 1.1(CM + CV - SX - .33SY - .33SZ)
1 1.1 3 1.1 12 -1.1 13 -0.33 14 -0.33 
LOAD COMB 178 1.1(CM + CV + 0.33SX + 0.33SY)
1 1.1 3 1.1 12 0.33 13 0.33 14 1.1 
LOAD COMB 179 1.1(CM + CV + .33SX - .33SY - SZ)
1 1.1 3 1.1 12 0.33 13 -0.33 14 -1.1 
LOAD COMB 180 1.1(CM + CV + .33SX + .33SY - SZ)
1 1.1 3 1.1 12 0.33 13 0.33 14 -1.1 
LOAD COMB 181 1.1(CM + CV + .33SX - .33SY + SZ)
1 1.1 3 1.1 12 0.33 13 -0.33 14 1.1 
LOAD COMB 182 1.1(CM + CV + .33SX + .33SY + SZ)
1 1.1 3 1.1 12 -0.33 13 0.33 14 1.1 
LOAD COMB 183 1.1(CM + CV - .33SX + .33SY - SZ)
1 1.1 3 1.1 12 -0.33 13 0.33 14 -1.1 
LOAD COMB 184 1.1(CM + CV - .33SX - .33SY + SZ)
1 1.1 3 1.1 12 -0.33 13 -0.33 14 1.1 
LOAD COMB 185 1.1(CM + CV - .33SX - .33SY - SZ)
1 1.1 3 1.1 12 -0.33 13 -0.33 14 -1.1 
LOAD COMB 186 1.1CM+ 1.1GRANIZO
1 1.1 4 1.1 
**********************************************************
**ANALISIS SISMICO DINAMICO MODAL Q=1 COMBINADAS
**CDIGO A.S.C.E. 7-2002
**MTODO LRFD
**********************************************************
LOAD COMB 560 1.4 CM + 1.6 CVMAX
1 1.4 3 1.6 
LOAD COMB 570 1.2 CM + CV + 1.0(+ SX + .33SY + .33SZ))
1 1.2 3 1.0 12 1.0 13 0.333 14 0.333 
LOAD COMB 571 1.2 CM + CV + 1.0(+ SX - .33SY - .33SZ))
1 1.2 3 1.0 12 1.0 13 -0.333 14 -0.333 
LOAD COMB 572 1.2 CM + CV + 1.0(+ SX + .33SY - .33SZ))
1 1.2 3 1.0 12 1.0 13 0.333 14 -0.333 
LOAD COMB 573 1.2 CM + CV + 1.0(+ SX - .33SY + .33SZ))
1 1.2 3 1.0 12 1.0 13 -0.333 14 0.333 
LOAD COMB 574 1.2 CM + CV + 1.0(- SX + .33SY + .33SZ))
1 1.2 3 1.0 12 -1.0 13 0.333 14 0.333 
LOAD COMB 575 1.2 CM + CV + 1.0(- SX + .33SY - .33SZ))
1 1.2 3 1.0 12 -1.0 13 0.333 14 -0.333 
LOAD COMB 576 1.2 CM + CV + 1.0(- SX - .33SY + .33SZ))
1 1.2 3 1.0 12 -1.0 13 -0.333 14 0.333 
LOAD COMB 577 1.2 CM + CV + 1.0(- SX - .33SY - .33SZ))
1 1.2 3 1.0 12 -1.0 13 -0.333 14 -0.333 
LOAD COMB 578 1.2 CM + CV + 1.0(+ .33SX + .33SY + SZ))
1 1.2 3 1.0 12 0.333 13 0.333 14 1.0 
LOAD COMB 579 1.2 CM + CV + 1.0(+ .33SX - .33SY - SZ))
1 1.2 3 1.0 12 0.333 13 -0.333 14 -1.0 
LOAD COMB 580 1.2 CM + CV + 1.0(+ .33SX + .33SY - SZ))
1 1.2 3 1.0 12 0.333 13 0.333 14 -1.0 
LOAD COMB 581 1.2 CM + CV + 1.0(+ .33SX - .33SY + SZ))
1 1.2 3 1.0 12 0.333 13 -0.333 14 1.0 
LOAD COMB 582 1.2 CM + CV + 1.0( .33SX + .33SY + SZ))
1 1.2 3 1.0 12 -0.333 13 0.333 14 1.0 
LOAD COMB 583 1.2 CM + CV + 1.0(- .33SX + .33SY - SZ))
1 1.2 3 1.0 12 -0.333 13 0.333 14 -1.0 
LOAD COMB 584 1.2 CM + CV + 1.0(- .33SX - .33SY + SZ))
1 1.2 3 1.0 12 -0.333 13 -0.333 14 1.0 
LOAD COMB 585 1.2 CM + CV + 1.0(- .33SX - .33SY - SZ))
1 1.2 3 1.0 12 -0.333 13 -0.333 14 -1.0 
*********************************************************
*********************************************************
PERFORM ANALYSIS
FINISH
